/*--------------------------------*- C++ -*----------------------------------*\
| =========                 |                                                 |
| \\      /  F ield         | OpenFOAM: The Open Source CFD Toolbox           |
|  \\    /   O peration     | Version:  v2212                                 |
|   \\  /    A nd           | Website:  www.openfoam.com                      |
|    \\/     M anipulation  |                                                 |
\*---------------------------------------------------------------------------*/
FoamFile
{
    version     2.0;
    format      ascii;
    class       volScalarField;
    object      T;
}
// * * * * * * * * * * * * * * * * * * * * * * * * * * * * * * * * * * * * * //

dimensions      [0 0 0 1 0 0 0];

internalField   uniform 300;

boundaryField
{
    inlet
    {
        type    zeroGradient;
    }

    outlet
    {
        type    zeroGradient;
    }

    frontwall
    {
        type    empty;
    }

    backwall
    {
        type    empty;
    }

    hotwall
    {
        type            fixedValue;
	value		uniform 302.5;
    }

    coldwall
    {
        type            fixedValue;
	value		uniform 297.5;
    }


}


// ************************************************************************* //
