/*--------------------------------*- C++ -*----------------------------------*\
| =========                 |                                                 |
| \\      /  F ield         | OpenFOAM: The Open Source CFD Toolbox           |
|  \\    /   O peration     | Version:  v2212                                 |
|   \\  /    A nd           | Website:  www.openfoam.com                      |
|    \\/     M anipulation  |                                                 |
\*---------------------------------------------------------------------------*/
FoamFile
{
    version     2.0;
    format      ascii;
    class       dictionary;
    object      blockMeshDict;
}
// * * * * * * * * * * * * * * * * * * * * * * * * * * * * * * * * * * * * * //

scale   0.1;

vertices
(
    (0 0 0)
    (1 0 0)
    (1 1 0)
    (0 1 0)
    (0 0 0.1)
    (1 0 0.1)
    (1 1 0.1)
    (0 1 0.1)
);

blocks
(
    hex (0 1 2 3 4 5 6 7) (60 60 1) 
    simpleGrading (
	    	  (
                  (0.1 0.2 8)
		  (0.8 0.6 1)
                  (0.1 0.2 0.125)
                  )
	          ( 	
		  (0.1 0.2 8)
                  (0.8 0.6 1)
                  (0.1 0.2 0.125)
		  )
  		  1)
);

boundary
(
    inlet
    {
        type wall;
        faces
        (
            (0 1 4 5)
        );
    }
    outlet
    {
        type wall;
        faces
        (
            (2 3 6 7)
        );
    }
    frontwall
    {
        type empty;
        faces
        (
            (0 1 2 3)
        );
    }
    backwall
    {
        type empty;
        faces
        (
            (4 5 6 7)
        );
    }
    hotwall
    {
        type wall;
        faces
        (
            (1 2 6 5)
        );
    }

    coldwall
    {
        type wall;
        faces
        (
            (0 3 7 4)
        );
    }
);


// ************************************************************************* //

